/*--------------------------------*- C++ -*----------------------------------*\
  =========                 |
  \\      /  F ield         | OpenFOAM: The Open Source CFD Toolbox
   \\    /   O peration     | Website:  https://openfoam.org
    \\  /    A nd           | Version:  dev
     \\/     M anipulation  |
\*---------------------------------------------------------------------------*/
FoamFile
{
    version     2.0;
    format      ascii;
    class       volScalarField;
    location    "0";
    object      nut;
}
// * * * * * * * * * * * * * * * * * * * * * * * * * * * * * * * * * * * * * //

dimensions      [0 2 -1 0 0 0 0];

internalField   uniform 0;

boundaryField
{
    inlet
    {
        type            calculated;
        value           uniform 0;
    }
    outlet
    {
        type            calculated;
        value           uniform 0;
    }
    ground
    {
        type            atmNutWallFunction;
        z0              uniform 0.0000181;
        value           uniform 0.0;
    }
    building
    {
        type            nutkRoughWallFunction;
        Cmu             0.09;
        kappa           0.4;
        E               9.8;
        Cs              uniform 0.5;
        Ks              uniform 0;
        value           uniform 0;
    }
    symmetry
    {
	    type		    symmetry;
    }    
    cyclic
    {
        type		cyclic;
    }
    
}


// ************************************************************************* //
